* NGSPICE file created from ldo_v1_lvs.ext - technology: sky130A

.subckt ldo_v1_lvs GND en VDD ldo_out
X0 GND a_6845920_n1960391# GND sky130_fd_pr__res_xhigh_po w=690000u l=2.7e+07u
X1 GND a_6841288_n1969063# GND sky130_fd_pr__res_xhigh_po w=690000u l=2.7e+07u
X2 ldo_out a_6840912_n1929809# VDD VDD sky130_fd_pr__pfet_g5v0d10v5 ad=0p pd=0u as=0p ps=0u w=1e+07u l=500000u
X3 VDD a_6840912_n1929809# ldo_out VDD sky130_fd_pr__pfet_g5v0d10v5 ad=0p pd=0u as=0p ps=0u w=1e+07u l=500000u
X4 ldo_out a_6840912_n1929809# VDD VDD sky130_fd_pr__pfet_g5v0d10v5 ad=0p pd=0u as=0p ps=0u w=1e+07u l=500000u
X5 VDD a_6840912_n1929809# ldo_out VDD sky130_fd_pr__pfet_g5v0d10v5 ad=0p pd=0u as=0p ps=0u w=1e+07u l=500000u
X6 GND a_6841288_n1969063# GND sky130_fd_pr__res_xhigh_po w=690000u l=2.7e+07u
X7 GND a_6847078_n1969063# GND sky130_fd_pr__res_xhigh_po w=690000u l=2.7e+07u
X8 VDD a_6840912_n1929809# ldo_out VDD sky130_fd_pr__pfet_g5v0d10v5 ad=0p pd=0u as=0p ps=0u w=1e+07u l=500000u
X9 ldo_out a_6840912_n1929809# VDD VDD sky130_fd_pr__pfet_g5v0d10v5 ad=0p pd=0u as=0p ps=0u w=1e+07u l=500000u
X10 VDD a_6840912_n1929809# ldo_out VDD sky130_fd_pr__pfet_g5v0d10v5 ad=0p pd=0u as=0p ps=0u w=1e+07u l=500000u
X11 ldo_out a_6840912_n1929809# VDD VDD sky130_fd_pr__pfet_g5v0d10v5 ad=0p pd=0u as=0p ps=0u w=1e+07u l=500000u
X12 VDD a_6840912_n1929809# ldo_out VDD sky130_fd_pr__pfet_g5v0d10v5 ad=0p pd=0u as=0p ps=0u w=1e+07u l=500000u
X13 a_6827621_n1962948# a_6824337_n1958931# VDD VDD sky130_fd_pr__pfet_g5v0d10v5 ad=0p pd=0u as=0p ps=0u w=3e+06u l=2e+06u
X14 ldo_out a_6840912_n1929809# VDD VDD sky130_fd_pr__pfet_g5v0d10v5 ad=0p pd=0u as=0p ps=0u w=1e+07u l=500000u
X15 VDD a_6840912_n1929809# ldo_out VDD sky130_fd_pr__pfet_g5v0d10v5 ad=0p pd=0u as=0p ps=0u w=1e+07u l=500000u
X16 ldo_out a_6840912_n1929809# VDD VDD sky130_fd_pr__pfet_g5v0d10v5 ad=0p pd=0u as=0p ps=0u w=1e+07u l=500000u
X17 VDD a_6840912_n1929809# ldo_out VDD sky130_fd_pr__pfet_g5v0d10v5 ad=0p pd=0u as=0p ps=0u w=1e+07u l=500000u
X18 ldo_out a_6840912_n1929809# VDD VDD sky130_fd_pr__pfet_g5v0d10v5 ad=0p pd=0u as=0p ps=0u w=1e+07u l=500000u
X19 VDD a_6840912_n1929809# ldo_out VDD sky130_fd_pr__pfet_g5v0d10v5 ad=0p pd=0u as=0p ps=0u w=1e+07u l=500000u
X20 ldo_out a_6840912_n1929809# VDD VDD sky130_fd_pr__pfet_g5v0d10v5 ad=0p pd=0u as=0p ps=0u w=1e+07u l=500000u
X21 VDD a_6840912_n1929809# ldo_out VDD sky130_fd_pr__pfet_g5v0d10v5 ad=0p pd=0u as=0p ps=0u w=1e+07u l=500000u
X22 ldo_out a_6840912_n1929809# VDD VDD sky130_fd_pr__pfet_g5v0d10v5 ad=0p pd=0u as=0p ps=0u w=1e+07u l=500000u
X23 VDD a_6840912_n1929809# ldo_out VDD sky130_fd_pr__pfet_g5v0d10v5 ad=0p pd=0u as=0p ps=0u w=1e+07u l=500000u
X24 ldo_out a_6840912_n1929809# VDD VDD sky130_fd_pr__pfet_g5v0d10v5 ad=0p pd=0u as=0p ps=0u w=1e+07u l=500000u
X25 VDD a_6840912_n1929809# ldo_out VDD sky130_fd_pr__pfet_g5v0d10v5 ad=0p pd=0u as=0p ps=0u w=1e+07u l=500000u
X26 a_6828137_n1962974# a_6828013_n1973991# a_6827439_n1973965# GND sky130_fd_pr__nfet_g5v0d10v5 ad=0p pd=0u as=0p ps=0u w=3e+06u l=1e+06u
X27 VDD a_6840912_n1929809# ldo_out VDD sky130_fd_pr__pfet_g5v0d10v5 ad=0p pd=0u as=0p ps=0u w=1e+07u l=500000u
X28 ldo_out a_6840912_n1929809# VDD VDD sky130_fd_pr__pfet_g5v0d10v5 ad=0p pd=0u as=0p ps=0u w=1e+07u l=500000u
X29 VDD a_6840912_n1929809# ldo_out VDD sky130_fd_pr__pfet_g5v0d10v5 ad=0p pd=0u as=0p ps=0u w=1e+07u l=500000u
X30 ldo_out a_6840912_n1929809# VDD VDD sky130_fd_pr__pfet_g5v0d10v5 ad=0p pd=0u as=0p ps=0u w=1e+07u l=500000u
X31 ldo_out a_6840912_n1929809# VDD VDD sky130_fd_pr__pfet_g5v0d10v5 ad=0p pd=0u as=0p ps=0u w=1e+07u l=500000u
X32 VDD a_6840912_n1929809# ldo_out VDD sky130_fd_pr__pfet_g5v0d10v5 ad=0p pd=0u as=0p ps=0u w=1e+07u l=500000u
X33 ldo_out a_6840912_n1929809# VDD VDD sky130_fd_pr__pfet_g5v0d10v5 ad=0p pd=0u as=0p ps=0u w=1e+07u l=500000u
X34 GND a_6893824_n1946282# GND sky130_fd_pr__res_xhigh_po w=690000u l=2.4e+07u
X35 VDD a_6840912_n1929809# ldo_out VDD sky130_fd_pr__pfet_g5v0d10v5 ad=0p pd=0u as=0p ps=0u w=1e+07u l=500000u
X36 a_6824337_n1958931# a_6828137_n1962974# VDD VDD sky130_fd_pr__pfet_g5v0d10v5 ad=0p pd=0u as=0p ps=0u w=3e+06u l=2e+06u
X37 a_6827163_n1964748# a_6827163_n1964748# GND GND sky130_fd_pr__nfet_g5v0d10v5 ad=0p pd=0u as=0p ps=0u w=1e+06u l=1e+06u
X38 VDD a_6840912_n1929809# ldo_out VDD sky130_fd_pr__pfet_g5v0d10v5 ad=0p pd=0u as=0p ps=0u w=1e+07u l=500000u
X39 ldo_out a_6840912_n1929809# VDD VDD sky130_fd_pr__pfet_g5v0d10v5 ad=0p pd=0u as=0p ps=0u w=1e+07u l=500000u
X40 VDD a_6840912_n1929809# ldo_out VDD sky130_fd_pr__pfet_g5v0d10v5 ad=0p pd=0u as=0p ps=0u w=1e+07u l=500000u
X41 VDD a_6840912_n1929809# ldo_out VDD sky130_fd_pr__pfet_g5v0d10v5 ad=0p pd=0u as=0p ps=0u w=1e+07u l=500000u
X42 ldo_out a_6840912_n1929809# VDD VDD sky130_fd_pr__pfet_g5v0d10v5 ad=0p pd=0u as=0p ps=0u w=1e+07u l=500000u
X43 VDD a_6840912_n1929809# ldo_out VDD sky130_fd_pr__pfet_g5v0d10v5 ad=0p pd=0u as=0p ps=0u w=1e+07u l=500000u
X44 VDD a_6840912_n1929809# ldo_out VDD sky130_fd_pr__pfet_g5v0d10v5 ad=0p pd=0u as=0p ps=0u w=1e+07u l=500000u
X45 ldo_out a_6840912_n1929809# VDD VDD sky130_fd_pr__pfet_g5v0d10v5 ad=0p pd=0u as=0p ps=0u w=1e+07u l=500000u
X46 a_6827439_n1973965# a_6827497_n1973991# a_6824337_n1958931# GND sky130_fd_pr__nfet_g5v0d10v5 ad=0p pd=0u as=0p ps=0u w=3e+06u l=1e+06u
X47 GND a_6827692_n1969205# a_6824337_n1958931# GND sky130_fd_pr__nfet_g5v0d10v5 ad=0p pd=0u as=0p ps=0u w=5e+06u l=500000u
X48 ldo_out a_6840912_n1929809# VDD VDD sky130_fd_pr__pfet_g5v0d10v5 ad=0p pd=0u as=0p ps=0u w=1e+07u l=500000u
X49 VDD a_6840912_n1929809# ldo_out VDD sky130_fd_pr__pfet_g5v0d10v5 ad=0p pd=0u as=0p ps=0u w=1e+07u l=500000u
X50 ldo_out a_6840912_n1929809# VDD VDD sky130_fd_pr__pfet_g5v0d10v5 ad=0p pd=0u as=0p ps=0u w=1e+07u l=500000u
X51 GND a_6845920_n1960391# GND sky130_fd_pr__res_xhigh_po w=690000u l=2.7e+07u
X52 VDD a_6840912_n1929809# ldo_out VDD sky130_fd_pr__pfet_g5v0d10v5 ad=0p pd=0u as=0p ps=0u w=1e+07u l=500000u
X53 ldo_out a_6840912_n1929809# VDD VDD sky130_fd_pr__pfet_g5v0d10v5 ad=0p pd=0u as=0p ps=0u w=1e+07u l=500000u
X54 VDD a_6840912_n1929809# ldo_out VDD sky130_fd_pr__pfet_g5v0d10v5 ad=0p pd=0u as=0p ps=0u w=1e+07u l=500000u
X55 GND a_6841288_n1969063# GND sky130_fd_pr__res_xhigh_po w=690000u l=2.7e+07u
X56 ldo_out a_6840912_n1929809# VDD VDD sky130_fd_pr__pfet_g5v0d10v5 ad=0p pd=0u as=0p ps=0u w=1e+07u l=500000u
X57 VDD a_6840912_n1929809# ldo_out VDD sky130_fd_pr__pfet_g5v0d10v5 ad=0p pd=0u as=0p ps=0u w=1e+07u l=500000u
X58 a_6824337_n1958931# a_6827497_n1973991# a_6827439_n1973965# GND sky130_fd_pr__nfet_g5v0d10v5 ad=0p pd=0u as=0p ps=0u w=3e+06u l=1e+06u
X59 GND a_6827621_n1962948# a_6827439_n1973965# GND sky130_fd_pr__nfet_g5v0d10v5 ad=0p pd=0u as=0p ps=0u w=5e+06u l=2e+06u
X60 a_6881369_n1978314# a_6827163_n1964748# GND GND sky130_fd_pr__nfet_g5v0d10v5 ad=0p pd=0u as=0p ps=0u w=1e+06u l=1e+06u
X61 GND a_6847078_n1969063# GND sky130_fd_pr__res_xhigh_po w=690000u l=2.7e+07u
X62 a_6840912_n1929809# a_6881543_n1973365# VDD VDD sky130_fd_pr__pfet_g5v0d10v5 ad=0p pd=0u as=0p ps=0u w=3e+06u l=1.2e+06u
X63 ldo_out a_6840912_n1929809# VDD VDD sky130_fd_pr__pfet_g5v0d10v5 ad=0p pd=0u as=0p ps=0u w=1e+07u l=500000u
X64 VDD a_6840912_n1929809# ldo_out VDD sky130_fd_pr__pfet_g5v0d10v5 ad=0p pd=0u as=0p ps=0u w=1e+07u l=500000u
X65 ldo_out a_6840912_n1929809# VDD VDD sky130_fd_pr__pfet_g5v0d10v5 ad=0p pd=0u as=0p ps=0u w=1e+07u l=500000u
X66 GND a_6847078_n1969063# GND sky130_fd_pr__res_xhigh_po w=690000u l=2.7e+07u
X67 ldo_out a_6840912_n1929809# VDD VDD sky130_fd_pr__pfet_g5v0d10v5 ad=0p pd=0u as=0p ps=0u w=1e+07u l=500000u
X68 VDD a_6840912_n1929809# ldo_out VDD sky130_fd_pr__pfet_g5v0d10v5 ad=0p pd=0u as=0p ps=0u w=1e+07u l=500000u
X69 ldo_out a_6840912_n1929809# VDD VDD sky130_fd_pr__pfet_g5v0d10v5 ad=0p pd=0u as=0p ps=0u w=1e+07u l=500000u
X70 a_6824337_n1958931# VDD sky130_fd_pr__cap_mim_m3_1 l=2e+07u w=2e+07u
X71 VDD a_6840912_n1929809# ldo_out VDD sky130_fd_pr__pfet_g5v0d10v5 ad=0p pd=0u as=0p ps=0u w=1e+07u l=500000u
X72 VDD a_6840912_n1929809# ldo_out VDD sky130_fd_pr__pfet_g5v0d10v5 ad=0p pd=0u as=0p ps=0u w=1e+07u l=500000u
X73 ldo_out a_6840912_n1929809# VDD VDD sky130_fd_pr__pfet_g5v0d10v5 ad=0p pd=0u as=0p ps=0u w=1e+07u l=500000u
X74 a_6827621_n1962948# a_6827621_n1962948# GND GND sky130_fd_pr__nfet_g5v0d10v5 ad=0p pd=0u as=0p ps=0u w=5e+06u l=2e+06u
X75 VDD a_6840912_n1929809# ldo_out VDD sky130_fd_pr__pfet_g5v0d10v5 ad=0p pd=0u as=0p ps=0u w=1e+07u l=500000u
X76 GND a_6841288_n1969063# GND sky130_fd_pr__res_xhigh_po w=690000u l=2.7e+07u
X77 VDD a_6840912_n1929809# ldo_out VDD sky130_fd_pr__pfet_g5v0d10v5 ad=0p pd=0u as=0p ps=0u w=1e+07u l=500000u
X78 ldo_out a_6840912_n1929809# VDD VDD sky130_fd_pr__pfet_g5v0d10v5 ad=0p pd=0u as=0p ps=0u w=1e+07u l=500000u
X79 VDD a_6840912_n1929809# ldo_out VDD sky130_fd_pr__pfet_g5v0d10v5 ad=0p pd=0u as=0p ps=0u w=1e+07u l=500000u
X80 GND a_6827163_n1964748# a_6881369_n1978314# GND sky130_fd_pr__nfet_g5v0d10v5 ad=0p pd=0u as=0p ps=0u w=1e+06u l=1e+06u
X81 ldo_out a_6840912_n1929809# VDD VDD sky130_fd_pr__pfet_g5v0d10v5 ad=0p pd=0u as=0p ps=0u w=1e+07u l=500000u
X82 VDD a_6840912_n1929809# ldo_out VDD sky130_fd_pr__pfet_g5v0d10v5 ad=0p pd=0u as=0p ps=0u w=1e+07u l=500000u
X83 VDD a_6840912_n1929809# ldo_out VDD sky130_fd_pr__pfet_g5v0d10v5 ad=0p pd=0u as=0p ps=0u w=1e+07u l=500000u
X84 ldo_out a_6840912_n1929809# VDD VDD sky130_fd_pr__pfet_g5v0d10v5 ad=0p pd=0u as=0p ps=0u w=1e+07u l=500000u
X85 VDD a_6840912_n1929809# ldo_out VDD sky130_fd_pr__pfet_g5v0d10v5 ad=0p pd=0u as=0p ps=0u w=1e+07u l=500000u
X86 a_6892280_n1951526# ldo_out GND sky130_fd_pr__res_xhigh_po w=690000u l=2.4e+07u
X87 VDD a_6824337_n1958931# a_6828013_n1973991# VDD sky130_fd_pr__pfet_g5v0d10v5 ad=0p pd=0u as=0p ps=0u w=3e+06u l=2e+06u
X88 a_6881543_n1973365# a_6881943_n1978340# a_6881369_n1978314# GND sky130_fd_pr__nfet_g5v0d10v5 ad=0p pd=0u as=0p ps=0u w=2e+06u l=1e+06u
X89 VDD a_6840912_n1929809# ldo_out VDD sky130_fd_pr__pfet_g5v0d10v5 ad=0p pd=0u as=0p ps=0u w=1e+07u l=500000u
X90 ldo_out a_6840912_n1929809# VDD VDD sky130_fd_pr__pfet_g5v0d10v5 ad=0p pd=0u as=0p ps=0u w=1e+07u l=500000u
X91 VDD a_6840912_n1929809# ldo_out VDD sky130_fd_pr__pfet_g5v0d10v5 ad=0p pd=0u as=0p ps=0u w=1e+07u l=500000u
X92 ldo_out a_6840912_n1929809# VDD VDD sky130_fd_pr__pfet_g5v0d10v5 ad=0p pd=0u as=0p ps=0u w=1e+07u l=500000u
X93 ldo_out a_6840912_n1929809# VDD VDD sky130_fd_pr__pfet_g5v0d10v5 ad=0p pd=0u as=0p ps=0u w=1e+07u l=500000u
X94 ldo_out a_6840912_n1929809# VDD VDD sky130_fd_pr__pfet_g5v0d10v5 ad=0p pd=0u as=0p ps=0u w=1e+07u l=500000u
X95 VDD a_6840912_n1929809# ldo_out VDD sky130_fd_pr__pfet_g5v0d10v5 ad=0p pd=0u as=0p ps=0u w=1e+07u l=500000u
X96 ldo_out a_6840912_n1929809# VDD VDD sky130_fd_pr__pfet_g5v0d10v5 ad=0p pd=0u as=0p ps=0u w=1e+07u l=500000u
X97 GND a_6845920_n1960391# GND sky130_fd_pr__res_xhigh_po w=690000u l=2.7e+07u
X98 a_6892280_n1951526# ldo_out GND sky130_fd_pr__res_xhigh_po w=690000u l=2.4e+07u
X99 VDD a_6840912_n1929809# ldo_out VDD sky130_fd_pr__pfet_g5v0d10v5 ad=0p pd=0u as=0p ps=0u w=1e+07u l=500000u
X100 ldo_out a_6840912_n1929809# VDD VDD sky130_fd_pr__pfet_g5v0d10v5 ad=0p pd=0u as=0p ps=0u w=1e+07u l=500000u
X101 VDD a_6840912_n1929809# ldo_out VDD sky130_fd_pr__pfet_g5v0d10v5 ad=0p pd=0u as=0p ps=0u w=1e+07u l=500000u
X102 ldo_out a_6840912_n1929809# VDD VDD sky130_fd_pr__pfet_g5v0d10v5 ad=0p pd=0u as=0p ps=0u w=1e+07u l=500000u
X103 VDD a_6840912_n1929809# ldo_out VDD sky130_fd_pr__pfet_g5v0d10v5 ad=0p pd=0u as=0p ps=0u w=1e+07u l=500000u
X104 ldo_out a_6840912_n1929809# VDD VDD sky130_fd_pr__pfet_g5v0d10v5 ad=0p pd=0u as=0p ps=0u w=1e+07u l=500000u
X105 VDD a_6840912_n1929809# ldo_out VDD sky130_fd_pr__pfet_g5v0d10v5 ad=0p pd=0u as=0p ps=0u w=1e+07u l=500000u
X106 VDD a_6840912_n1929809# ldo_out VDD sky130_fd_pr__pfet_g5v0d10v5 ad=0p pd=0u as=0p ps=0u w=1e+07u l=500000u
X107 ldo_out a_6840912_n1929809# VDD VDD sky130_fd_pr__pfet_g5v0d10v5 ad=0p pd=0u as=0p ps=0u w=1e+07u l=500000u
X108 VDD a_6840912_n1929809# ldo_out VDD sky130_fd_pr__pfet_g5v0d10v5 ad=0p pd=0u as=0p ps=0u w=1e+07u l=500000u
X109 GND a_6841288_n1969063# GND sky130_fd_pr__res_xhigh_po w=690000u l=2.7e+07u
X110 VDD a_6840912_n1929809# ldo_out VDD sky130_fd_pr__pfet_g5v0d10v5 ad=0p pd=0u as=0p ps=0u w=1e+07u l=500000u
X111 GND a_6827621_n1962948# a_6827439_n1973965# GND sky130_fd_pr__nfet_g5v0d10v5 ad=0p pd=0u as=0p ps=0u w=5e+06u l=2e+06u
X112 VDD a_6840912_n1929809# ldo_out VDD sky130_fd_pr__pfet_g5v0d10v5 ad=0p pd=0u as=0p ps=0u w=1e+07u l=500000u
X113 ldo_out a_6840912_n1929809# VDD VDD sky130_fd_pr__pfet_g5v0d10v5 ad=0p pd=0u as=0p ps=0u w=1e+07u l=500000u
X114 a_6849008_n1960391# a_6828013_n1973991# GND sky130_fd_pr__res_xhigh_po w=690000u l=2.7e+07u
X115 VDD a_6840912_n1929809# ldo_out VDD sky130_fd_pr__pfet_g5v0d10v5 ad=0p pd=0u as=0p ps=0u w=1e+07u l=500000u
X116 ldo_out a_6840912_n1929809# VDD VDD sky130_fd_pr__pfet_g5v0d10v5 ad=0p pd=0u as=0p ps=0u w=1e+07u l=500000u
X117 VDD a_6840912_n1929809# ldo_out VDD sky130_fd_pr__pfet_g5v0d10v5 ad=0p pd=0u as=0p ps=0u w=1e+07u l=500000u
X118 ldo_out a_6840912_n1929809# VDD VDD sky130_fd_pr__pfet_g5v0d10v5 ad=0p pd=0u as=0p ps=0u w=1e+07u l=500000u
X119 ldo_out a_6840912_n1929809# VDD VDD sky130_fd_pr__pfet_g5v0d10v5 ad=0p pd=0u as=0p ps=0u w=1e+07u l=500000u
X120 ldo_out a_6840912_n1929809# VDD VDD sky130_fd_pr__pfet_g5v0d10v5 ad=0p pd=0u as=0p ps=0u w=1e+07u l=500000u
X121 VDD a_6840912_n1929809# ldo_out VDD sky130_fd_pr__pfet_g5v0d10v5 ad=0p pd=0u as=0p ps=0u w=1e+07u l=500000u
X122 ldo_out a_6840912_n1929809# VDD VDD sky130_fd_pr__pfet_g5v0d10v5 ad=0p pd=0u as=0p ps=0u w=1e+07u l=500000u
X123 VDD a_6840912_n1929809# ldo_out VDD sky130_fd_pr__pfet_g5v0d10v5 ad=0p pd=0u as=0p ps=0u w=1e+07u l=500000u
X124 a_6827692_n1969205# a_6828079_n1964748# GND GND sky130_fd_pr__nfet_g5v0d10v5 ad=0p pd=0u as=0p ps=0u w=420000u l=2e+06u
X125 VDD a_6840912_n1929809# ldo_out VDD sky130_fd_pr__pfet_g5v0d10v5 ad=0p pd=0u as=0p ps=0u w=1e+07u l=500000u
X126 a_6834434_n1968402# a_6827497_n1973991# GND sky130_fd_pr__res_xhigh_po w=690000u l=2.7e+07u
X127 ldo_out a_6840912_n1929809# VDD VDD sky130_fd_pr__pfet_g5v0d10v5 ad=0p pd=0u as=0p ps=0u w=1e+07u l=500000u
X128 ldo_out a_6840912_n1929809# VDD VDD sky130_fd_pr__pfet_g5v0d10v5 ad=0p pd=0u as=0p ps=0u w=1e+07u l=500000u
X129 VDD a_6840912_n1929809# ldo_out VDD sky130_fd_pr__pfet_g5v0d10v5 ad=0p pd=0u as=0p ps=0u w=1e+07u l=500000u
X130 a_6881303_n1973391# a_6828079_n1964748# a_6881369_n1978314# GND sky130_fd_pr__nfet_g5v0d10v5 ad=0p pd=0u as=0p ps=0u w=2e+06u l=1e+06u
X131 a_6892280_n1951526# ldo_out GND sky130_fd_pr__res_xhigh_po w=690000u l=2.4e+07u
X132 a_6840912_n1929809# a_6827163_n1964748# GND GND sky130_fd_pr__nfet_g5v0d10v5 ad=0p pd=0u as=0p ps=0u w=1e+06u l=1e+06u
X133 VDD a_6840912_n1929809# ldo_out VDD sky130_fd_pr__pfet_g5v0d10v5 ad=0p pd=0u as=0p ps=0u w=1e+07u l=500000u
X134 ldo_out a_6840912_n1929809# VDD VDD sky130_fd_pr__pfet_g5v0d10v5 ad=0p pd=0u as=0p ps=0u w=1e+07u l=500000u
X135 VDD a_6840912_n1929809# ldo_out VDD sky130_fd_pr__pfet_g5v0d10v5 ad=0p pd=0u as=0p ps=0u w=1e+07u l=500000u
X136 a_6881303_n1973391# a_6881303_n1973391# VDD VDD sky130_fd_pr__pfet_g5v0d10v5 ad=0p pd=0u as=0p ps=0u w=3e+06u l=1.2e+06u
X137 ldo_out a_6840912_n1929809# VDD VDD sky130_fd_pr__pfet_g5v0d10v5 ad=0p pd=0u as=0p ps=0u w=1e+07u l=500000u
X138 VDD a_6840912_n1929809# ldo_out VDD sky130_fd_pr__pfet_g5v0d10v5 ad=0p pd=0u as=0p ps=0u w=1e+07u l=500000u
X139 ldo_out a_6840912_n1929809# VDD VDD sky130_fd_pr__pfet_g5v0d10v5 ad=0p pd=0u as=0p ps=0u w=1e+07u l=500000u
X140 VDD a_6840912_n1929809# ldo_out VDD sky130_fd_pr__pfet_g5v0d10v5 ad=0p pd=0u as=0p ps=0u w=1e+07u l=500000u
X141 ldo_out a_6840912_n1929809# VDD VDD sky130_fd_pr__pfet_g5v0d10v5 ad=0p pd=0u as=0p ps=0u w=1e+07u l=500000u
X142 VDD a_6840912_n1929809# ldo_out VDD sky130_fd_pr__pfet_g5v0d10v5 ad=0p pd=0u as=0p ps=0u w=1e+07u l=500000u
X143 a_6827439_n1973965# a_6828013_n1973991# a_6828137_n1962974# GND sky130_fd_pr__nfet_g5v0d10v5 ad=0p pd=0u as=0p ps=0u w=3e+06u l=1e+06u
X144 GND a_6841288_n1969063# GND sky130_fd_pr__res_xhigh_po w=690000u l=2.7e+07u
X145 GND GND a_6833434_n1969402# sky130_fd_pr__pnp_05v5 area=0p
X146 ldo_out a_6840912_n1929809# VDD VDD sky130_fd_pr__pfet_g5v0d10v5 ad=0p pd=0u as=0p ps=0u w=1e+07u l=500000u
X147 VDD a_6840912_n1929809# ldo_out VDD sky130_fd_pr__pfet_g5v0d10v5 ad=0p pd=0u as=0p ps=0u w=1e+07u l=500000u
X148 ldo_out a_6840912_n1929809# VDD VDD sky130_fd_pr__pfet_g5v0d10v5 ad=0p pd=0u as=0p ps=0u w=1e+07u l=500000u
X149 GND a_6841288_n1969063# GND sky130_fd_pr__res_xhigh_po w=690000u l=2.7e+07u
X150 VDD a_6840912_n1929809# ldo_out VDD sky130_fd_pr__pfet_g5v0d10v5 ad=0p pd=0u as=0p ps=0u w=1e+07u l=500000u
X151 ldo_out a_6840912_n1929809# VDD VDD sky130_fd_pr__pfet_g5v0d10v5 ad=0p pd=0u as=0p ps=0u w=1e+07u l=500000u
X152 VDD a_6840912_n1929809# ldo_out VDD sky130_fd_pr__pfet_g5v0d10v5 ad=0p pd=0u as=0p ps=0u w=1e+07u l=500000u
X153 a_6892280_n1951526# ldo_out GND sky130_fd_pr__res_xhigh_po w=690000u l=2.4e+07u
X154 ldo_out a_6840912_n1929809# VDD VDD sky130_fd_pr__pfet_g5v0d10v5 ad=0p pd=0u as=0p ps=0u w=1e+07u l=500000u
X155 VDD a_6840912_n1929809# ldo_out VDD sky130_fd_pr__pfet_g5v0d10v5 ad=0p pd=0u as=0p ps=0u w=1e+07u l=500000u
X156 ldo_out a_6840912_n1929809# VDD VDD sky130_fd_pr__pfet_g5v0d10v5 ad=0p pd=0u as=0p ps=0u w=1e+07u l=500000u
X157 VDD a_6840912_n1929809# ldo_out VDD sky130_fd_pr__pfet_g5v0d10v5 ad=0p pd=0u as=0p ps=0u w=1e+07u l=500000u
X158 ldo_out a_6840912_n1929809# VDD VDD sky130_fd_pr__pfet_g5v0d10v5 ad=0p pd=0u as=0p ps=0u w=1e+07u l=500000u
X159 GND a_6841288_n1969063# GND sky130_fd_pr__res_xhigh_po w=690000u l=2.7e+07u
X160 VDD a_6840912_n1929809# ldo_out VDD sky130_fd_pr__pfet_g5v0d10v5 ad=0p pd=0u as=0p ps=0u w=1e+07u l=500000u
X161 ldo_out a_6840912_n1929809# VDD VDD sky130_fd_pr__pfet_g5v0d10v5 ad=0p pd=0u as=0p ps=0u w=1e+07u l=500000u
X162 VDD a_6840912_n1929809# ldo_out VDD sky130_fd_pr__pfet_g5v0d10v5 ad=0p pd=0u as=0p ps=0u w=1e+07u l=500000u
X163 VDD a_6840912_n1929809# ldo_out VDD sky130_fd_pr__pfet_g5v0d10v5 ad=0p pd=0u as=0p ps=0u w=1e+07u l=500000u
X164 ldo_out a_6840912_n1929809# VDD VDD sky130_fd_pr__pfet_g5v0d10v5 ad=0p pd=0u as=0p ps=0u w=1e+07u l=500000u
X165 ldo_out a_6840912_n1929809# VDD VDD sky130_fd_pr__pfet_g5v0d10v5 ad=0p pd=0u as=0p ps=0u w=1e+07u l=500000u
X166 VDD a_6840912_n1929809# ldo_out VDD sky130_fd_pr__pfet_g5v0d10v5 ad=0p pd=0u as=0p ps=0u w=1e+07u l=500000u
X167 GND a_6827163_n1964748# a_6827163_n1964748# GND sky130_fd_pr__nfet_g5v0d10v5 ad=0p pd=0u as=0p ps=0u w=1e+06u l=1e+06u
X168 a_6833434_n1969402# a_6849008_n1960391# GND sky130_fd_pr__res_xhigh_po w=690000u l=2.7e+07u
X169 ldo_out a_6840912_n1929809# VDD VDD sky130_fd_pr__pfet_g5v0d10v5 ad=0p pd=0u as=0p ps=0u w=1e+07u l=500000u
X170 VDD a_6840912_n1929809# ldo_out VDD sky130_fd_pr__pfet_g5v0d10v5 ad=0p pd=0u as=0p ps=0u w=1e+07u l=500000u
X171 ldo_out a_6840912_n1929809# VDD VDD sky130_fd_pr__pfet_g5v0d10v5 ad=0p pd=0u as=0p ps=0u w=1e+07u l=500000u
X172 ldo_out a_6840912_n1929809# VDD VDD sky130_fd_pr__pfet_g5v0d10v5 ad=0p pd=0u as=0p ps=0u w=1e+07u l=500000u
X173 VDD a_6840912_n1929809# ldo_out VDD sky130_fd_pr__pfet_g5v0d10v5 ad=0p pd=0u as=0p ps=0u w=1e+07u l=500000u
X174 a_6881369_n1978314# a_6827163_n1964748# GND GND sky130_fd_pr__nfet_g5v0d10v5 ad=0p pd=0u as=0p ps=0u w=1e+06u l=1e+06u
X175 ldo_out a_6840912_n1929809# VDD VDD sky130_fd_pr__pfet_g5v0d10v5 ad=0p pd=0u as=0p ps=0u w=1e+07u l=500000u
X176 ldo_out a_6840912_n1929809# VDD VDD sky130_fd_pr__pfet_g5v0d10v5 ad=0p pd=0u as=0p ps=0u w=1e+07u l=500000u
X177 VDD a_6840912_n1929809# ldo_out VDD sky130_fd_pr__pfet_g5v0d10v5 ad=0p pd=0u as=0p ps=0u w=1e+07u l=500000u
X178 a_6827439_n1973965# a_6827497_n1973991# a_6824337_n1958931# GND sky130_fd_pr__nfet_g5v0d10v5 ad=0p pd=0u as=0p ps=0u w=3e+06u l=1e+06u
X179 VDD a_6840912_n1929809# ldo_out VDD sky130_fd_pr__pfet_g5v0d10v5 ad=0p pd=0u as=0p ps=0u w=1e+07u l=500000u
X180 ldo_out a_6840912_n1929809# VDD VDD sky130_fd_pr__pfet_g5v0d10v5 ad=0p pd=0u as=0p ps=0u w=1e+07u l=500000u
X181 VDD a_6840912_n1929809# ldo_out VDD sky130_fd_pr__pfet_g5v0d10v5 ad=0p pd=0u as=0p ps=0u w=1e+07u l=500000u
X182 a_6827163_n1964748# a_6824337_n1958931# VDD VDD sky130_fd_pr__pfet_g5v0d10v5 ad=0p pd=0u as=0p ps=0u w=3e+06u l=2e+06u
X183 VDD a_6828137_n1962974# a_6828137_n1962974# VDD sky130_fd_pr__pfet_g5v0d10v5 ad=0p pd=0u as=0p ps=0u w=3e+06u l=2e+06u
X184 GND a_6827163_n1964748# a_6881369_n1978314# GND sky130_fd_pr__nfet_g5v0d10v5 ad=0p pd=0u as=0p ps=0u w=1e+06u l=1e+06u
X185 VDD a_6840912_n1929809# ldo_out VDD sky130_fd_pr__pfet_g5v0d10v5 ad=0p pd=0u as=0p ps=0u w=1e+07u l=500000u
X186 ldo_out a_6840912_n1929809# VDD VDD sky130_fd_pr__pfet_g5v0d10v5 ad=0p pd=0u as=0p ps=0u w=1e+07u l=500000u
X187 VDD a_6840912_n1929809# ldo_out VDD sky130_fd_pr__pfet_g5v0d10v5 ad=0p pd=0u as=0p ps=0u w=1e+07u l=500000u
X188 a_6881543_n1973365# a_6881943_n1978340# a_6881369_n1978314# GND sky130_fd_pr__nfet_g5v0d10v5 ad=0p pd=0u as=0p ps=0u w=2e+06u l=1e+06u
X189 ldo_out a_6840912_n1929809# VDD VDD sky130_fd_pr__pfet_g5v0d10v5 ad=0p pd=0u as=0p ps=0u w=1e+07u l=500000u
X190 VDD a_6840912_n1929809# ldo_out VDD sky130_fd_pr__pfet_g5v0d10v5 ad=0p pd=0u as=0p ps=0u w=1e+07u l=500000u
X191 ldo_out a_6840912_n1929809# VDD VDD sky130_fd_pr__pfet_g5v0d10v5 ad=0p pd=0u as=0p ps=0u w=1e+07u l=500000u
X192 GND GND a_6833434_n1969402# sky130_fd_pr__pnp_05v5 area=0p
X193 ldo_out a_6840912_n1929809# VDD VDD sky130_fd_pr__pfet_g5v0d10v5 ad=0p pd=0u as=0p ps=0u w=1e+07u l=500000u
X194 VDD a_6840912_n1929809# ldo_out VDD sky130_fd_pr__pfet_g5v0d10v5 ad=0p pd=0u as=0p ps=0u w=1e+07u l=500000u
X195 ldo_out a_6840912_n1929809# VDD VDD sky130_fd_pr__pfet_g5v0d10v5 ad=0p pd=0u as=0p ps=0u w=1e+07u l=500000u
X196 ldo_out a_6840912_n1929809# VDD VDD sky130_fd_pr__pfet_g5v0d10v5 ad=0p pd=0u as=0p ps=0u w=1e+07u l=500000u
X197 VDD a_6840912_n1929809# ldo_out VDD sky130_fd_pr__pfet_g5v0d10v5 ad=0p pd=0u as=0p ps=0u w=1e+07u l=500000u
X198 a_6827692_n1969205# a_6827692_n1969205# a_6827544_n1967186# VDD sky130_fd_pr__pfet_g5v0d10v5 ad=0p pd=0u as=0p ps=0u w=420000u l=3e+06u
X199 GND a_6841288_n1969063# GND sky130_fd_pr__res_xhigh_po w=690000u l=2.7e+07u
X200 a_6824337_n1958931# a_6828137_n1962974# VDD VDD sky130_fd_pr__pfet_g5v0d10v5 ad=0p pd=0u as=0p ps=0u w=3e+06u l=2e+06u
X201 ldo_out a_6840912_n1929809# VDD VDD sky130_fd_pr__pfet_g5v0d10v5 ad=0p pd=0u as=0p ps=0u w=1e+07u l=500000u
X202 VDD a_6840912_n1929809# ldo_out VDD sky130_fd_pr__pfet_g5v0d10v5 ad=0p pd=0u as=0p ps=0u w=1e+07u l=500000u
X203 ldo_out a_6840912_n1929809# VDD VDD sky130_fd_pr__pfet_g5v0d10v5 ad=0p pd=0u as=0p ps=0u w=1e+07u l=500000u
X204 VDD a_6840912_n1929809# ldo_out VDD sky130_fd_pr__pfet_g5v0d10v5 ad=0p pd=0u as=0p ps=0u w=1e+07u l=500000u
X205 ldo_out a_6840912_n1929809# VDD VDD sky130_fd_pr__pfet_g5v0d10v5 ad=0p pd=0u as=0p ps=0u w=1e+07u l=500000u
X206 VDD a_6840912_n1929809# ldo_out VDD sky130_fd_pr__pfet_g5v0d10v5 ad=0p pd=0u as=0p ps=0u w=1e+07u l=500000u
X207 VDD a_6824337_n1958931# a_6827497_n1973991# VDD sky130_fd_pr__pfet_g5v0d10v5 ad=0p pd=0u as=0p ps=0u w=3e+06u l=2e+06u
X208 ldo_out a_6840912_n1929809# VDD VDD sky130_fd_pr__pfet_g5v0d10v5 ad=0p pd=0u as=0p ps=0u w=1e+07u l=500000u
X209 VDD a_6840912_n1929809# ldo_out VDD sky130_fd_pr__pfet_g5v0d10v5 ad=0p pd=0u as=0p ps=0u w=1e+07u l=500000u
X210 ldo_out a_6840912_n1929809# VDD VDD sky130_fd_pr__pfet_g5v0d10v5 ad=0p pd=0u as=0p ps=0u w=1e+07u l=500000u
X211 ldo_out a_6840912_n1929809# VDD VDD sky130_fd_pr__pfet_g5v0d10v5 ad=0p pd=0u as=0p ps=0u w=1e+07u l=500000u
X212 ldo_out a_6840912_n1929809# VDD VDD sky130_fd_pr__pfet_g5v0d10v5 ad=0p pd=0u as=0p ps=0u w=1e+07u l=500000u
X213 GND a_6893824_n1946282# GND sky130_fd_pr__res_xhigh_po w=690000u l=2.4e+07u
X214 GND a_6847078_n1969063# GND sky130_fd_pr__res_xhigh_po w=690000u l=2.7e+07u
X215 ldo_out a_6840912_n1929809# VDD VDD sky130_fd_pr__pfet_g5v0d10v5 ad=0p pd=0u as=0p ps=0u w=1e+07u l=500000u
X216 VDD a_6840912_n1929809# ldo_out VDD sky130_fd_pr__pfet_g5v0d10v5 ad=0p pd=0u as=0p ps=0u w=1e+07u l=500000u
X217 GND a_6847078_n1969063# GND sky130_fd_pr__res_xhigh_po w=690000u l=2.7e+07u
X218 ldo_out a_6840912_n1929809# VDD VDD sky130_fd_pr__pfet_g5v0d10v5 ad=0p pd=0u as=0p ps=0u w=1e+07u l=500000u
X219 VDD a_6840912_n1929809# ldo_out VDD sky130_fd_pr__pfet_g5v0d10v5 ad=0p pd=0u as=0p ps=0u w=1e+07u l=500000u
X220 GND a_6845920_n1960391# GND sky130_fd_pr__res_xhigh_po w=690000u l=2.7e+07u
X221 ldo_out a_6840912_n1929809# VDD VDD sky130_fd_pr__pfet_g5v0d10v5 ad=0p pd=0u as=0p ps=0u w=1e+07u l=500000u
X222 VDD a_6840912_n1929809# ldo_out VDD sky130_fd_pr__pfet_g5v0d10v5 ad=0p pd=0u as=0p ps=0u w=1e+07u l=500000u
X223 VDD a_6824337_n1958931# a_6828013_n1973991# VDD sky130_fd_pr__pfet_g5v0d10v5 ad=0p pd=0u as=0p ps=0u w=3e+06u l=2e+06u
X224 VDD a_6840912_n1929809# ldo_out VDD sky130_fd_pr__pfet_g5v0d10v5 ad=0p pd=0u as=0p ps=0u w=1e+07u l=500000u
X225 a_6827497_n1973991# a_6824337_n1958931# VDD VDD sky130_fd_pr__pfet_g5v0d10v5 ad=0p pd=0u as=0p ps=0u w=3e+06u l=2e+06u
X226 ldo_out a_6840912_n1929809# VDD VDD sky130_fd_pr__pfet_g5v0d10v5 ad=0p pd=0u as=0p ps=0u w=1e+07u l=500000u
X227 VDD a_6840912_n1929809# ldo_out VDD sky130_fd_pr__pfet_g5v0d10v5 ad=0p pd=0u as=0p ps=0u w=1e+07u l=500000u
X228 GND GND a_6833434_n1969402# sky130_fd_pr__pnp_05v5 area=0p
X229 VDD a_6840912_n1929809# ldo_out VDD sky130_fd_pr__pfet_g5v0d10v5 ad=0p pd=0u as=0p ps=0u w=1e+07u l=500000u
X230 ldo_out a_6840912_n1929809# VDD VDD sky130_fd_pr__pfet_g5v0d10v5 ad=0p pd=0u as=0p ps=0u w=1e+07u l=500000u
X231 VDD a_6840912_n1929809# ldo_out VDD sky130_fd_pr__pfet_g5v0d10v5 ad=0p pd=0u as=0p ps=0u w=1e+07u l=500000u
X232 ldo_out a_6840912_n1929809# VDD VDD sky130_fd_pr__pfet_g5v0d10v5 ad=0p pd=0u as=0p ps=0u w=1e+07u l=500000u
X233 VDD a_6840912_n1929809# ldo_out VDD sky130_fd_pr__pfet_g5v0d10v5 ad=0p pd=0u as=0p ps=0u w=1e+07u l=500000u
X234 ldo_out a_6840912_n1929809# VDD VDD sky130_fd_pr__pfet_g5v0d10v5 ad=0p pd=0u as=0p ps=0u w=1e+07u l=500000u
X235 VDD a_6840912_n1929809# ldo_out VDD sky130_fd_pr__pfet_g5v0d10v5 ad=0p pd=0u as=0p ps=0u w=1e+07u l=500000u
X236 ldo_out a_6840912_n1929809# VDD VDD sky130_fd_pr__pfet_g5v0d10v5 ad=0p pd=0u as=0p ps=0u w=1e+07u l=500000u
X237 VDD a_6840912_n1929809# ldo_out VDD sky130_fd_pr__pfet_g5v0d10v5 ad=0p pd=0u as=0p ps=0u w=1e+07u l=500000u
X238 ldo_out a_6840912_n1929809# VDD VDD sky130_fd_pr__pfet_g5v0d10v5 ad=0p pd=0u as=0p ps=0u w=1e+07u l=500000u
X239 VDD a_6840912_n1929809# ldo_out VDD sky130_fd_pr__pfet_g5v0d10v5 ad=0p pd=0u as=0p ps=0u w=1e+07u l=500000u
X240 ldo_out a_6840912_n1929809# VDD VDD sky130_fd_pr__pfet_g5v0d10v5 ad=0p pd=0u as=0p ps=0u w=1e+07u l=500000u
X241 VDD a_6881303_n1973391# a_6881543_n1973365# VDD sky130_fd_pr__pfet_g5v0d10v5 ad=0p pd=0u as=0p ps=0u w=3e+06u l=1.2e+06u
X242 ldo_out a_6840912_n1929809# VDD VDD sky130_fd_pr__pfet_g5v0d10v5 ad=0p pd=0u as=0p ps=0u w=1e+07u l=500000u
X243 VDD a_6840912_n1929809# ldo_out VDD sky130_fd_pr__pfet_g5v0d10v5 ad=0p pd=0u as=0p ps=0u w=1e+07u l=500000u
X244 ldo_out a_6840912_n1929809# VDD VDD sky130_fd_pr__pfet_g5v0d10v5 ad=0p pd=0u as=0p ps=0u w=1e+07u l=500000u
X245 a_6881303_n1973391# a_6828079_n1964748# a_6881369_n1978314# GND sky130_fd_pr__nfet_g5v0d10v5 ad=0p pd=0u as=0p ps=0u w=2e+06u l=1e+06u
X246 GND a_6841288_n1969063# GND sky130_fd_pr__res_xhigh_po w=690000u l=2.7e+07u
X247 ldo_out a_6840912_n1929809# VDD VDD sky130_fd_pr__pfet_g5v0d10v5 ad=0p pd=0u as=0p ps=0u w=1e+07u l=500000u
X248 VDD a_6840912_n1929809# ldo_out VDD sky130_fd_pr__pfet_g5v0d10v5 ad=0p pd=0u as=0p ps=0u w=1e+07u l=500000u
X249 GND a_6845920_n1960391# GND sky130_fd_pr__res_xhigh_po w=690000u l=2.7e+07u
X250 GND a_6847078_n1969063# GND sky130_fd_pr__res_xhigh_po w=690000u l=2.7e+07u
X251 ldo_out a_6840912_n1929809# VDD VDD sky130_fd_pr__pfet_g5v0d10v5 ad=0p pd=0u as=0p ps=0u w=1e+07u l=500000u
X252 VDD a_6840912_n1929809# ldo_out VDD sky130_fd_pr__pfet_g5v0d10v5 ad=0p pd=0u as=0p ps=0u w=1e+07u l=500000u
X253 VDD a_6840912_n1929809# ldo_out VDD sky130_fd_pr__pfet_g5v0d10v5 ad=0p pd=0u as=0p ps=0u w=1e+07u l=500000u
X254 ldo_out a_6840912_n1929809# VDD VDD sky130_fd_pr__pfet_g5v0d10v5 ad=0p pd=0u as=0p ps=0u w=1e+07u l=500000u
X255 VDD a_6840912_n1929809# ldo_out VDD sky130_fd_pr__pfet_g5v0d10v5 ad=0p pd=0u as=0p ps=0u w=1e+07u l=500000u
X256 VDD a_6840912_n1929809# ldo_out VDD sky130_fd_pr__pfet_g5v0d10v5 ad=0p pd=0u as=0p ps=0u w=1e+07u l=500000u
X257 GND a_6841288_n1969063# GND sky130_fd_pr__res_xhigh_po w=690000u l=2.7e+07u
X258 a_6840912_n1929809# a_6827163_n1964748# GND GND sky130_fd_pr__nfet_g5v0d10v5 ad=0p pd=0u as=0p ps=0u w=1e+06u l=1e+06u
X259 ldo_out a_6840912_n1929809# VDD VDD sky130_fd_pr__pfet_g5v0d10v5 ad=0p pd=0u as=0p ps=0u w=1e+07u l=500000u
X260 VDD a_6840912_n1929809# ldo_out VDD sky130_fd_pr__pfet_g5v0d10v5 ad=0p pd=0u as=0p ps=0u w=1e+07u l=500000u
X261 a_6827439_n1973965# a_6828013_n1973991# a_6828137_n1962974# GND sky130_fd_pr__nfet_g5v0d10v5 ad=0p pd=0u as=0p ps=0u w=3e+06u l=1e+06u
X262 ldo_out a_6840912_n1929809# VDD VDD sky130_fd_pr__pfet_g5v0d10v5 ad=0p pd=0u as=0p ps=0u w=1e+07u l=500000u
X263 VDD a_6840912_n1929809# ldo_out VDD sky130_fd_pr__pfet_g5v0d10v5 ad=0p pd=0u as=0p ps=0u w=1e+07u l=500000u
X264 VDD a_6881303_n1973391# a_6881543_n1973365# VDD sky130_fd_pr__pfet_g5v0d10v5 ad=0p pd=0u as=0p ps=0u w=3e+06u l=1.2e+06u
X265 GND a_6827163_n1964748# a_6840912_n1929809# GND sky130_fd_pr__nfet_g5v0d10v5 ad=0p pd=0u as=0p ps=0u w=1e+06u l=1e+06u
X266 GND a_6841288_n1969063# GND sky130_fd_pr__res_xhigh_po w=690000u l=2.7e+07u
X267 VDD a_6840912_n1929809# ldo_out VDD sky130_fd_pr__pfet_g5v0d10v5 ad=0p pd=0u as=0p ps=0u w=1e+07u l=500000u
X268 ldo_out a_6840912_n1929809# VDD VDD sky130_fd_pr__pfet_g5v0d10v5 ad=0p pd=0u as=0p ps=0u w=1e+07u l=500000u
X269 VDD a_6840912_n1929809# ldo_out VDD sky130_fd_pr__pfet_g5v0d10v5 ad=0p pd=0u as=0p ps=0u w=1e+07u l=500000u